Circuit: * C:\Users\13372\Documents\GitHub\TNCMCU\Schematic\Ltspice\PTT circuit\PTT_Mosfet.asc

Direct Newton iteration for .op point succeeded.

Date: Sun Nov 01 17:46:36 2020
Total elapsed time: 0.091 seconds.

tnom = 27
temp = 27
method = modified trap
totiter = 2088
traniter = 2082
tranpoints = 1042
accept = 1042
rejected = 0
matrix size = 11
fillins = 0
solver = Normal
Matrix Compiler1:      28 opcodes  0.1/[0.1]/0.1
Matrix Compiler2: off  [0.1]/0.1/0.1

